/*--------------------------------*- C++ -*----------------------------------*\
| =========                 |                                                 |
| \\      /  F ield         | OpenFOAM: The Open Source CFD Toolbox           |
|  \\    /   O peration     | Version:  4.x                                   |
|   \\  /    A nd           | Web:      www.OpenFOAM.org                      |
|    \\/     M anipulation  |                                                 |
\*---------------------------------------------------------------------------*/
FoamFile
{
    version     2.0;
    format      ascii;
    class       dictionary;
    object      fvSolution;
}
// * * * * * * * * * * * * * * * * * * * * * * * * * * * * * * * * * * * * * //

solvers
{
    "alpha.water.*"
    {
        nAlphaCorr      3;
        nAlphaSubCycles 1;
        cAlpha          1;  // compression de la interfaz
        icAlpha         0;

        MULESCorr       yes;
        nLimiterIter    10;
        alphaApplyPrevCorr  yes;

        solver          smoothSolver;
        smoother        symGaussSeidel;
        tolerance       1e-10;
        relTol          0;
        minIter         3;
    }

    "pcorr.*"
    {
        solver          GAMG;

        smoother        DIC;
        agglomerator    faceAreaPair;
        mergeLevels     1;
        nCellsInCoarsestLevel 10;
        cacheAgglomeration true;

        tolerance       1e-06;
        relTol          0;
    };

    p_rgh
    {
        solver          GAMG;

        smoother        DIC;
        agglomerator    faceAreaPair;
        mergeLevels     1;
        nCellsInCoarsestLevel 10;
        cacheAgglomeration true;

        tolerance       1e-6;
        relTol          0.01;
    };

    p_rghFinal
    {
        $p_rgh;
        relTol          0;
    }

    "(U|k|epsilon|omega).*"
    {
        solver          smoothSolver;
        smoother        symGaussSeidel;
        tolerance       1e-08;
        relTol          0;
        minIter         3;
    }

}

PIMPLE
{
    momentumPredictor yes;

    nOuterCorrectors 1;
    nCorrectors      2;
    nNonOrthogonalCorrectors 1;

    //correctPhi      yes;
    //moveMeshOuterCorrectors yes;
    //turbOnFinalIterOnly yes;
}

relaxationFactors
{
    fields
    {
    }
    equations
    {
        ".*" 1;
    }
}

cache
{
    grad(U);
}

// ************************************************************************* //
